3
C2 molecule (in angstroms)
C  0.000000 0.000000 0.000000
C  1.240000 0.000000 0.000000
H  1.000000 1.000000 0.000000
3
C2 molecule (in angstroms)
C  0.000000 0.000000 0.000000
C  1.240000 0.000000 0.000000
H  1.000000 1.100000 0.000000
3
C2 molecule (in angstroms)
C  0.000000 0.000000 0.000000
C  1.240000 0.000000 0.000000
H  1.000000 1.200000 0.000000
3
C2 molecule (in angstroms)
C  0.000000 0.000000 0.000000
C  1.240000 0.000000 0.000000
H  1.000000 1.300000 0.000000
3
C2 molecule (in angstroms)
C  0.000000 0.000000 0.000000
C  1.240000 0.000000 0.000000
H  1.000000 1.400000 0.000000
3
C2 molecule (in angstroms)
C  0.000000 0.000000 0.000000
C  1.240000 0.000000 0.000000
H  1.000000 1.500000 0.000000
3
C2 molecule (in angstroms)
C  0.000000 0.000000 0.000000
C  1.240000 0.000000 0.000000
H  1.000000 1.600000 0.000000
3
C2 molecule (in angstroms)
C  0.000000 0.000000 0.000000
C  1.240000 0.000000 0.000000
H  1.000000 1.700000 0.000000
3
C2 molecule (in angstroms)
C  0.000000 0.000000 0.000000
C  1.240000 0.000000 0.000000
H  1.000000 1.800000 0.000000
3
C2 molecule (in angstroms)
C  0.000000 0.000000 0.000000
C  1.240000 0.000000 0.000000
H  1.000000 1.900000 0.000000
3
C2 molecule (in angstroms)
C  0.000000 0.000000 0.000000
C  1.240000 0.000000 0.000000
H  1.000000 2.000000 0.000000
