64
diamond64.xyz 7.0993 7.0993 7.0993
C	0	0	0
C	0	0	3.54965
C	0	3.54965	0
C	0	3.54965	3.54965
C	3.54965	0	0
C	3.54965	0	3.54965
C	3.54965	3.54965	0
C	3.54965	3.54965	3.54965
C	0	1.77824	1.77824
C	0	1.77824	5.32789
C	0	5.32789	1.77824
C	0	5.32789	5.32789
C	3.54965	1.77824	1.77824
C	3.54965	1.77824	5.32789
C	3.54965	5.32789	1.77824
C	3.54965	5.32789	5.32789
C	1.77824	0	1.77824
C	1.77824	0	5.32789
C	1.77824	3.54965	1.77824
C	1.77824	3.54965	5.32789
C	5.32789	0	1.77824
C	5.32789	0	5.32789
C	5.32789	3.54965	1.77824
C	5.32789	3.54965	5.32789
C	1.77824	1.77824	0
C	1.77824	1.77824	3.54965
C	1.77824	5.32789	0
C	1.77824	5.32789	3.54965
C	5.32789	1.77824	0
C	5.32789	1.77824	3.54965
C	5.32789	5.32789	0
C	5.32789	5.32789	3.54965
C	0.889119	0.889119	0.889119
C	0.889119	0.889119	4.43877
C	0.889119	4.43877	0.889119
C	0.889119	4.43877	4.43877
C	4.43877	0.889119	0.889119
C	4.43877	0.889119	4.43877
C	4.43877	4.43877	0.889119
C	4.43877	4.43877	4.43877
C	0.889119	2.66736	2.66736
C	0.889119	2.66736	6.21701
C	0.889119	6.21701	2.66736
C	0.889119	6.21701	6.21701
C	4.43877	2.66736	2.66736
C	4.43877	2.66736	6.21701
C	4.43877	6.21701	2.66736
C	4.43877	6.21701	6.21701
C	2.66736	0.889119	2.66736
C	2.66736	0.889119	6.21701
C	2.66736	4.43877	2.66736
C	2.66736	4.43877	6.21701
C	6.21701	0.889119	2.66736
C	6.21701	0.889119	6.21701
C	6.21701	4.43877	2.66736
C	6.21701	4.43877	6.21701
C	2.66736	2.66736	0.889119
C	2.66736	2.66736	4.43877
C	2.66736	6.21701	0.889119
C	2.66736	6.21701	4.43877
C	6.21701	2.66736	0.889119
C	6.21701	2.66736	4.43877
C	6.21701	6.21701	0.889119
C	6.21701	6.21701	4.43877
