3
Steepest descent 
C  0.000000 0.000000 0.000000
C  0.800000 1.000000 0.200000
C  2.100000 -0.500000 -0.300000
3
Steepest descent 
C  0.000228 0.000139 0.000018
C  0.799967 0.999726 0.199930
C  2.099804 -0.499865 -0.299949
3
Steepest descent 
C  0.014785 0.005165 0.000181
C  0.799858 0.985662 0.196226
C  2.085356 -0.490827 -0.296407
3
Steepest descent 
C  0.020563 0.004398 -0.000484
C  0.801474 0.983102 0.195421
C  2.077963 -0.487500 -0.294937
3
Steepest descent 
C  0.023156 0.003724 -0.000869
C  0.802758 0.983012 0.195294
C  2.074086 -0.486736 -0.294425
3
Steepest descent 
C  0.024475 0.003647 -0.000995
C  0.803674 0.983409 0.195326
C  2.071851 -0.487056 -0.294331
3
Steepest descent 
C  0.025246 0.003927 -0.000983
C  0.804376 0.983887 0.195396
C  2.070378 -0.487814 -0.294413
3
Steepest descent 
C  0.025769 0.004366 -0.000909
C  0.804962 0.984361 0.195474
C  2.069268 -0.488727 -0.294565
3
Steepest descent 
C  0.026174 0.004861 -0.000811
C  0.805481 0.984815 0.195553
C  2.068345 -0.489676 -0.294742
3
Steepest descent 
C  0.026517 0.005364 -0.000705
C  0.805955 0.985243 0.195628
C  2.067528 -0.490608 -0.294923
3
Steepest descent 
C  0.026822 0.005855 -0.000600
C  0.806396 0.985648 0.195699
C  2.066782 -0.491503 -0.295099
3
Steepest descent 
C  0.027103 0.006324 -0.000499
C  0.806808 0.986030 0.195767
C  2.066089 -0.492354 -0.295269
3
Steepest descent 
C  0.027364 0.006770 -0.000402
C  0.807195 0.986390 0.195831
C  2.065441 -0.493160 -0.295429
3
Steepest descent 
C  0.027608 0.007192 -0.000310
C  0.807560 0.986728 0.195891
C  2.064832 -0.493921 -0.295582
3
Steepest descent 
C  0.027837 0.007590 -0.000223
C  0.807903 0.987047 0.195948
C  2.064260 -0.494638 -0.295725
3
Steepest descent 
C  0.028052 0.007966 -0.000141
C  0.808227 0.987348 0.196002
C  2.063721 -0.495314 -0.295861
3
Steepest descent 
C  0.028254 0.008320 -0.000064
C  0.808531 0.987631 0.196052
C  2.063215 -0.495951 -0.295988
3
Steepest descent 
C  0.028444 0.008653 0.000009
C  0.808818 0.987897 0.196099
C  2.062738 -0.496551 -0.296108
3
Steepest descent 
C  0.028623 0.008968 0.000078
C  0.809088 0.988148 0.196144
C  2.062289 -0.497116 -0.296222
3
Steepest descent 
C  0.028791 0.009263 0.000142
C  0.809342 0.988384 0.196186
C  2.061867 -0.497647 -0.296328
3
Steepest descent 
C  0.028949 0.009542 0.000203
C  0.809581 0.988606 0.196225
C  2.061469 -0.498148 -0.296429
3
Steepest descent 
C  0.029098 0.009805 0.000261
C  0.809807 0.988815 0.196263
C  2.061096 -0.498620 -0.296523
3
Steepest descent 
C  0.029237 0.010052 0.000315
C  0.810019 0.989012 0.196298
C  2.060744 -0.499063 -0.296612
3
Steepest descent 
C  0.029369 0.010284 0.000366
C  0.810218 0.989197 0.196330
C  2.060413 -0.499481 -0.296696
3
Steepest descent 
C  0.029492 0.010503 0.000413
C  0.810406 0.989371 0.196361
C  2.060102 -0.499874 -0.296775
3
Steepest descent 
C  0.029608 0.010709 0.000459
C  0.810583 0.989534 0.196390
C  2.059809 -0.500243 -0.296849
3
Steepest descent 
C  0.029717 0.010903 0.000501
C  0.810749 0.989688 0.196418
C  2.059534 -0.500591 -0.296919
3
Steepest descent 
C  0.029820 0.011085 0.000541
C  0.810905 0.989833 0.196444
C  2.059275 -0.500918 -0.296984
3
Steepest descent 
C  0.029916 0.011257 0.000578
C  0.811052 0.989969 0.196468
C  2.059031 -0.501226 -0.297046
3
Steepest descent 
C  0.030007 0.011418 0.000614
C  0.811191 0.990098 0.196490
C  2.058802 -0.501516 -0.297104
3
Steepest descent 
C  0.030092 0.011570 0.000647
C  0.811321 0.990218 0.196512
C  2.058587 -0.501788 -0.297159
3
Steepest descent 
C  0.030172 0.011713 0.000678
C  0.811443 0.990331 0.196532
C  2.058385 -0.502044 -0.297210
3
Steepest descent 
C  0.030247 0.011847 0.000708
C  0.811558 0.990438 0.196551
C  2.058194 -0.502285 -0.297259
3
Steepest descent 
C  0.030318 0.011974 0.000736
C  0.811667 0.990538 0.196569
C  2.058015 -0.502512 -0.297304
3
Steepest descent 
C  0.030385 0.012093 0.000762
C  0.811768 0.990632 0.196585
C  2.057847 -0.502725 -0.297347
3
Steepest descent 
C  0.030447 0.012204 0.000786
C  0.811864 0.990721 0.196601
C  2.057689 -0.502925 -0.297387
3
Steepest descent 
C  0.030506 0.012309 0.000809
C  0.811954 0.990804 0.196616
C  2.057540 -0.503113 -0.297425
3
Steepest descent 
C  0.030561 0.012408 0.000831
C  0.812039 0.990882 0.196630
C  2.057400 -0.503290 -0.297461
3
Steepest descent 
C  0.030613 0.012501 0.000851
C  0.812118 0.990956 0.196643
C  2.057269 -0.503457 -0.297494
3
Steepest descent 
C  0.030662 0.012588 0.000870
C  0.812193 0.991025 0.196655
C  2.057145 -0.503613 -0.297526
3
Steepest descent 
C  0.030707 0.012671 0.000888
C  0.812263 0.991090 0.196667
C  2.057029 -0.503760 -0.297555
3
Steepest descent 
C  0.030750 0.012748 0.000905
C  0.812329 0.991151 0.196677
C  2.056920 -0.503899 -0.297583
3
Steepest descent 
C  0.030791 0.012820 0.000921
C  0.812392 0.991208 0.196688
C  2.056818 -0.504029 -0.297609
3
Steepest descent 
C  0.030829 0.012889 0.000936
C  0.812450 0.991262 0.196697
C  2.056721 -0.504151 -0.297634
3
Steepest descent 
C  0.030865 0.012953 0.000950
C  0.812505 0.991313 0.196706
C  2.056630 -0.504266 -0.297657
3
Steepest descent 
C  0.030898 0.013013 0.000964
C  0.812557 0.991361 0.196715
C  2.056545 -0.504374 -0.297678
3
Steepest descent 
C  0.030930 0.013070 0.000976
C  0.812605 0.991406 0.196723
C  2.056465 -0.504476 -0.297699
3
Steepest descent 
C  0.030959 0.013123 0.000988
C  0.812651 0.991448 0.196730
C  2.056390 -0.504571 -0.297718
3
Steepest descent 
C  0.030987 0.013173 0.000999
C  0.812694 0.991487 0.196737
C  2.056319 -0.504661 -0.297736
3
Steepest descent 
C  0.031014 0.013220 0.001009
C  0.812734 0.991525 0.196744
C  2.056253 -0.504745 -0.297753
3
Steepest descent 
C  0.031038 0.013265 0.001019
C  0.812772 0.991560 0.196750
C  2.056190 -0.504824 -0.297769
3
Steepest descent 
C  0.031061 0.013306 0.001028
C  0.812807 0.991592 0.196756
C  2.056131 -0.504899 -0.297784
3
Steepest descent 
C  0.031083 0.013345 0.001037
C  0.812841 0.991623 0.196761
C  2.056076 -0.504969 -0.297798
3
Steepest descent 
C  0.031103 0.013382 0.001045
C  0.812872 0.991652 0.196766
C  2.056024 -0.505034 -0.297811
3
Steepest descent 
C  0.031123 0.013417 0.001052
C  0.812902 0.991680 0.196771
C  2.055976 -0.505096 -0.297823
3
Steepest descent 
C  0.031141 0.013449 0.001059
C  0.812929 0.991705 0.196776
C  2.055930 -0.505154 -0.297835
3
Steepest descent 
C  0.031158 0.013480 0.001066
C  0.812956 0.991729 0.196780
C  2.055887 -0.505209 -0.297846
3
Steepest descent 
C  0.031174 0.013508 0.001072
C  0.812980 0.991752 0.196784
C  2.055846 -0.505260 -0.297856
3
Steepest descent 
C  0.031189 0.013535 0.001078
C  0.813003 0.991773 0.196788
C  2.055808 -0.505309 -0.297866
3
Steepest descent 
C  0.031203 0.013561 0.001084
C  0.813025 0.991793 0.196791
C  2.055773 -0.505354 -0.297875
3
Steepest descent 
C  0.031216 0.013584 0.001089
C  0.813045 0.991812 0.196795
C  2.055739 -0.505397 -0.297884
3
Steepest descent 
C  0.031228 0.013607 0.001094
C  0.813064 0.991830 0.196798
C  2.055707 -0.505437 -0.297892
3
Steepest descent 
C  0.031240 0.013628 0.001099
C  0.813082 0.991846 0.196801
C  2.055678 -0.505474 -0.297899
3
Steepest descent 
C  0.031251 0.013648 0.001103
C  0.813099 0.991862 0.196804
C  2.055650 -0.505510 -0.297907
3
Steepest descent 
C  0.031261 0.013666 0.001107
C  0.813115 0.991877 0.196806
C  2.055624 -0.505543 -0.297913
3
Steepest descent 
C  0.031271 0.013684 0.001111
C  0.813130 0.991890 0.196809
C  2.055599 -0.505574 -0.297919
3
Steepest descent 
C  0.031280 0.013700 0.001114
C  0.813144 0.991903 0.196811
C  2.055576 -0.505603 -0.297925
3
Steepest descent 
C  0.031289 0.013715 0.001118
C  0.813157 0.991916 0.196813
C  2.055554 -0.505631 -0.297931
3
Steepest descent 
C  0.031297 0.013730 0.001121
C  0.813170 0.991927 0.196815
C  2.055534 -0.505657 -0.297936
3
Steepest descent 
C  0.031304 0.013743 0.001124
C  0.813181 0.991938 0.196817
C  2.055515 -0.505681 -0.297941
3
Steepest descent 
C  0.031311 0.013756 0.001127
C  0.813192 0.991948 0.196819
C  2.055497 -0.505704 -0.297946
3
Steepest descent 
C  0.031318 0.013768 0.001129
C  0.813202 0.991957 0.196821
C  2.055480 -0.505726 -0.297950
3
Steepest descent 
C  0.031324 0.013780 0.001132
C  0.813212 0.991966 0.196822
C  2.055464 -0.505746 -0.297954
3
Steepest descent 
C  0.031330 0.013790 0.001134
C  0.813221 0.991975 0.196824
C  2.055449 -0.505765 -0.297958
3
Steepest descent 
C  0.031336 0.013800 0.001136
C  0.813230 0.991982 0.196825
C  2.055435 -0.505783 -0.297961
3
Steepest descent 
C  0.031341 0.013810 0.001138
C  0.813238 0.991990 0.196826
C  2.055422 -0.505799 -0.297965
3
Steepest descent 
C  0.031346 0.013818 0.001140
C  0.813245 0.991997 0.196828
C  2.055409 -0.505815 -0.297968
3
Steepest descent 
C  0.031350 0.013827 0.001142
C  0.813252 0.992003 0.196829
C  2.055398 -0.505830 -0.297971
3
Steepest descent 
C  0.031355 0.013834 0.001144
C  0.813259 0.992010 0.196830
C  2.055387 -0.505844 -0.297974
3
Steepest descent 
C  0.031359 0.013842 0.001146
C  0.813265 0.992015 0.196831
C  2.055376 -0.505857 -0.297976
3
Steepest descent 
C  0.031362 0.013849 0.001147
C  0.813271 0.992021 0.196832
C  2.055367 -0.505869 -0.297979
3
Steepest descent 
C  0.031366 0.013855 0.001148
C  0.813276 0.992026 0.196833
C  2.055358 -0.505881 -0.297981
3
Steepest descent 
C  0.031369 0.013861 0.001150
C  0.813282 0.992031 0.196834
C  2.055349 -0.505892 -0.297983
3
Steepest descent 
C  0.031372 0.013867 0.001151
C  0.813287 0.992035 0.196834
C  2.055341 -0.505902 -0.297985
3
Steepest descent 
C  0.031375 0.013872 0.001152
C  0.813291 0.992039 0.196835
C  2.055333 -0.505911 -0.297987
3
Steepest descent 
C  0.031378 0.013877 0.001153
C  0.813295 0.992043 0.196836
C  2.055326 -0.505920 -0.297989
3
Steepest descent 
C  0.031381 0.013882 0.001154
C  0.813299 0.992047 0.196836
C  2.055320 -0.505929 -0.297991
3
Steepest descent 
C  0.031383 0.013886 0.001155
C  0.813303 0.992050 0.196837
C  2.055313 -0.505937 -0.297992
3
Steepest descent 
C  0.031386 0.013890 0.001156
C  0.813307 0.992054 0.196838
C  2.055308 -0.505944 -0.297994
3
Steepest descent 
C  0.031388 0.013894 0.001157
C  0.813310 0.992057 0.196838
C  2.055302 -0.505951 -0.297995
3
Steepest descent 
C  0.031390 0.013898 0.001158
C  0.813313 0.992060 0.196839
C  2.055297 -0.505958 -0.297997
3
Steepest descent 
C  0.031392 0.013902 0.001159
C  0.813316 0.992063 0.196839
C  2.055292 -0.505964 -0.297998
3
Steepest descent 
C  0.031394 0.013905 0.001159
C  0.813319 0.992065 0.196840
C  2.055287 -0.505970 -0.297999
3
Steepest descent 
C  0.031395 0.013908 0.001160
C  0.813322 0.992068 0.196840
C  2.055283 -0.505975 -0.298000
3
Steepest descent 
C  0.031397 0.013911 0.001161
C  0.813324 0.992070 0.196840
C  2.055279 -0.505981 -0.298001
3
Steepest descent 
C  0.031398 0.013913 0.001161
C  0.813326 0.992072 0.196841
C  2.055275 -0.505985 -0.298002
3
Steepest descent 
C  0.031400 0.013916 0.001162
C  0.813329 0.992074 0.196841
C  2.055272 -0.505990 -0.298003
3
Steepest descent 
C  0.031401 0.013918 0.001162
C  0.813331 0.992076 0.196842
C  2.055268 -0.505994 -0.298004
3
Steepest descent 
C  0.031402 0.013921 0.001163
C  0.813333 0.992078 0.196842
C  2.055265 -0.505998 -0.298005
3
Steepest descent 
C  0.031404 0.013923 0.001163
C  0.813334 0.992079 0.196842
C  2.055262 -0.506002 -0.298005
3
Steepest descent 
C  0.031405 0.013925 0.001164
C  0.813336 0.992081 0.196842
C  2.055259 -0.506005 -0.298006
