24
C24_relaxed.xyz	31.44	10	10
C	0.026803	0	0
C	10.5068	0	0
C	20.9868	0	0
C	1.2832	0	0
C	11.7632	0	0
C	22.2432	0	0
C	2.6468	0	0
C	13.1268	0	0
C	23.6068	0	0
C	3.9032	0	0
C	14.3832	0	0
C	24.8632	0	0
C	5.2668	0	0
C	15.7468	0	0
C	26.2268	0	0
C	6.5232	0	0
C	17.0032	0	0
C	27.4832	0	0
C	7.8868	0	0
C	18.3668	0	0
C	28.8468	0	0
C	9.1432	0	0
C	19.6232	0	0
C	30.1032	0	0
