24
C24_relaxed.xyz	31.44	10	10
C	0.0152583	0	0
C	15.7353	0	0
C	6.53474	0	0
C	22.2547	0	0
C	13.1153	0	0
C	28.8353	0	0
C	1.29474	0	0
C	17.0147	0	0
C	7.87526	0	0
C	23.5953	0	0
C	14.3947	0	0
C	30.1147	0	0
C	2.63526	0	0
C	18.3553	0	0
C	9.15474	0	0
C	24.8747	0	0
C	3.91474	0	0
C	19.6347	0	0
C	10.4953	0	0
C	26.2153	0	0
C	5.25526	0	0
C	20.9753	0	0
C	11.7747	0	0
C	27.4947	0	0
