512
diamond512.xyz	14.1986	14.1986	14.1986
C	0	0	0
C	0	0	7.0993
C	0	7.0993	0
C	0	7.0993	7.0993
C	7.0993	0	0
C	7.0993	0	7.0993
C	7.0993	7.0993	0
C	7.0993	7.0993	7.0993
C	0	0	3.54965
C	0	0	10.649
C	0	7.0993	3.54965
C	0	7.0993	10.649
C	7.0993	0	3.54965
C	7.0993	0	10.649
C	7.0993	7.0993	3.54965
C	7.0993	7.0993	10.649
C	0	3.54965	0
C	0	3.54965	7.0993
C	0	10.649	0
C	0	10.649	7.0993
C	7.0993	3.54965	0
C	7.0993	3.54965	7.0993
C	7.0993	10.649	0
C	7.0993	10.649	7.0993
C	0	3.54965	3.54965
C	0	3.54965	10.649
C	0	10.649	3.54965
C	0	10.649	10.649
C	7.0993	3.54965	3.54965
C	7.0993	3.54965	10.649
C	7.0993	10.649	3.54965
C	7.0993	10.649	10.649
C	3.54965	0	0
C	3.54965	0	7.0993
C	3.54965	7.0993	0
C	3.54965	7.0993	7.0993
C	10.649	0	0
C	10.649	0	7.0993
C	10.649	7.0993	0
C	10.649	7.0993	7.0993
C	3.54965	0	3.54965
C	3.54965	0	10.649
C	3.54965	7.0993	3.54965
C	3.54965	7.0993	10.649
C	10.649	0	3.54965
C	10.649	0	10.649
C	10.649	7.0993	3.54965
C	10.649	7.0993	10.649
C	3.54965	3.54965	0
C	3.54965	3.54965	7.0993
C	3.54965	10.649	0
C	3.54965	10.649	7.0993
C	10.649	3.54965	0
C	10.649	3.54965	7.0993
C	10.649	10.649	0
C	10.649	10.649	7.0993
C	3.54965	3.54965	3.54965
C	3.54965	3.54965	10.649
C	3.54965	10.649	3.54965
C	3.54965	10.649	10.649
C	10.649	3.54965	3.54965
C	10.649	3.54965	10.649
C	10.649	10.649	3.54965
C	10.649	10.649	10.649
C	0	1.77824	1.77824
C	0	1.77824	8.87754
C	0	8.87754	1.77824
C	0	8.87754	8.87754
C	7.0993	1.77824	1.77824
C	7.0993	1.77824	8.87754
C	7.0993	8.87754	1.77824
C	7.0993	8.87754	8.87754
C	0	1.77824	5.32789
C	0	1.77824	12.4272
C	0	8.87754	5.32789
C	0	8.87754	12.4272
C	7.0993	1.77824	5.32789
C	7.0993	1.77824	12.4272
C	7.0993	8.87754	5.32789
C	7.0993	8.87754	12.4272
C	0	5.32789	1.77824
C	0	5.32789	8.87754
C	0	12.4272	1.77824
C	0	12.4272	8.87754
C	7.0993	5.32789	1.77824
C	7.0993	5.32789	8.87754
C	7.0993	12.4272	1.77824
C	7.0993	12.4272	8.87754
C	0	5.32789	5.32789
C	0	5.32789	12.4272
C	0	12.4272	5.32789
C	0	12.4272	12.4272
C	7.0993	5.32789	5.32789
C	7.0993	5.32789	12.4272
C	7.0993	12.4272	5.32789
C	7.0993	12.4272	12.4272
C	3.54965	1.77824	1.77824
C	3.54965	1.77824	8.87754
C	3.54965	8.87754	1.77824
C	3.54965	8.87754	8.87754
C	10.649	1.77824	1.77824
C	10.649	1.77824	8.87754
C	10.649	8.87754	1.77824
C	10.649	8.87754	8.87754
C	3.54965	1.77824	5.32789
C	3.54965	1.77824	12.4272
C	3.54965	8.87754	5.32789
C	3.54965	8.87754	12.4272
C	10.649	1.77824	5.32789
C	10.649	1.77824	12.4272
C	10.649	8.87754	5.32789
C	10.649	8.87754	12.4272
C	3.54965	5.32789	1.77824
C	3.54965	5.32789	8.87754
C	3.54965	12.4272	1.77824
C	3.54965	12.4272	8.87754
C	10.649	5.32789	1.77824
C	10.649	5.32789	8.87754
C	10.649	12.4272	1.77824
C	10.649	12.4272	8.87754
C	3.54965	5.32789	5.32789
C	3.54965	5.32789	12.4272
C	3.54965	12.4272	5.32789
C	3.54965	12.4272	12.4272
C	10.649	5.32789	5.32789
C	10.649	5.32789	12.4272
C	10.649	12.4272	5.32789
C	10.649	12.4272	12.4272
C	1.77824	0	1.77824
C	1.77824	0	8.87754
C	1.77824	7.0993	1.77824
C	1.77824	7.0993	8.87754
C	8.87754	0	1.77824
C	8.87754	0	8.87754
C	8.87754	7.0993	1.77824
C	8.87754	7.0993	8.87754
C	1.77824	0	5.32789
C	1.77824	0	12.4272
C	1.77824	7.0993	5.32789
C	1.77824	7.0993	12.4272
C	8.87754	0	5.32789
C	8.87754	0	12.4272
C	8.87754	7.0993	5.32789
C	8.87754	7.0993	12.4272
C	1.77824	3.54965	1.77824
C	1.77824	3.54965	8.87754
C	1.77824	10.649	1.77824
C	1.77824	10.649	8.87754
C	8.87754	3.54965	1.77824
C	8.87754	3.54965	8.87754
C	8.87754	10.649	1.77824
C	8.87754	10.649	8.87754
C	1.77824	3.54965	5.32789
C	1.77824	3.54965	12.4272
C	1.77824	10.649	5.32789
C	1.77824	10.649	12.4272
C	8.87754	3.54965	5.32789
C	8.87754	3.54965	12.4272
C	8.87754	10.649	5.32789
C	8.87754	10.649	12.4272
C	5.32789	0	1.77824
C	5.32789	0	8.87754
C	5.32789	7.0993	1.77824
C	5.32789	7.0993	8.87754
C	12.4272	0	1.77824
C	12.4272	0	8.87754
C	12.4272	7.0993	1.77824
C	12.4272	7.0993	8.87754
C	5.32789	0	5.32789
C	5.32789	0	12.4272
C	5.32789	7.0993	5.32789
C	5.32789	7.0993	12.4272
C	12.4272	0	5.32789
C	12.4272	0	12.4272
C	12.4272	7.0993	5.32789
C	12.4272	7.0993	12.4272
C	5.32789	3.54965	1.77824
C	5.32789	3.54965	8.87754
C	5.32789	10.649	1.77824
C	5.32789	10.649	8.87754
C	12.4272	3.54965	1.77824
C	12.4272	3.54965	8.87754
C	12.4272	10.649	1.77824
C	12.4272	10.649	8.87754
C	5.32789	3.54965	5.32789
C	5.32789	3.54965	12.4272
C	5.32789	10.649	5.32789
C	5.32789	10.649	12.4272
C	12.4272	3.54965	5.32789
C	12.4272	3.54965	12.4272
C	12.4272	10.649	5.32789
C	12.4272	10.649	12.4272
C	1.77824	1.77824	0
C	1.77824	1.77824	7.0993
C	1.77824	8.87754	0
C	1.77824	8.87754	7.0993
C	8.87754	1.77824	0
C	8.87754	1.77824	7.0993
C	8.87754	8.87754	0
C	8.87754	8.87754	7.0993
C	1.77824	1.77824	3.54965
C	1.77824	1.77824	10.649
C	1.77824	8.87754	3.54965
C	1.77824	8.87754	10.649
C	8.87754	1.77824	3.54965
C	8.87754	1.77824	10.649
C	8.87754	8.87754	3.54965
C	8.87754	8.87754	10.649
C	1.77824	5.32789	0
C	1.77824	5.32789	7.0993
C	1.77824	12.4272	0
C	1.77824	12.4272	7.0993
C	8.87754	5.32789	0
C	8.87754	5.32789	7.0993
C	8.87754	12.4272	0
C	8.87754	12.4272	7.0993
C	1.77824	5.32789	3.54965
C	1.77824	5.32789	10.649
C	1.77824	12.4272	3.54965
C	1.77824	12.4272	10.649
C	8.87754	5.32789	3.54965
C	8.87754	5.32789	10.649
C	8.87754	12.4272	3.54965
C	8.87754	12.4272	10.649
C	5.32789	1.77824	0
C	5.32789	1.77824	7.0993
C	5.32789	8.87754	0
C	5.32789	8.87754	7.0993
C	12.4272	1.77824	0
C	12.4272	1.77824	7.0993
C	12.4272	8.87754	0
C	12.4272	8.87754	7.0993
C	5.32789	1.77824	3.54965
C	5.32789	1.77824	10.649
C	5.32789	8.87754	3.54965
C	5.32789	8.87754	10.649
C	12.4272	1.77824	3.54965
C	12.4272	1.77824	10.649
C	12.4272	8.87754	3.54965
C	12.4272	8.87754	10.649
C	5.32789	5.32789	0
C	5.32789	5.32789	7.0993
C	5.32789	12.4272	0
C	5.32789	12.4272	7.0993
C	12.4272	5.32789	0
C	12.4272	5.32789	7.0993
C	12.4272	12.4272	0
C	12.4272	12.4272	7.0993
C	5.32789	5.32789	3.54965
C	5.32789	5.32789	10.649
C	5.32789	12.4272	3.54965
C	5.32789	12.4272	10.649
C	12.4272	5.32789	3.54965
C	12.4272	5.32789	10.649
C	12.4272	12.4272	3.54965
C	12.4272	12.4272	10.649
C	0.889119	0.889119	0.889119
C	0.889119	0.889119	7.98842
C	0.889119	7.98842	0.889119
C	0.889119	7.98842	7.98842
C	7.98842	0.889119	0.889119
C	7.98842	0.889119	7.98842
C	7.98842	7.98842	0.889119
C	7.98842	7.98842	7.98842
C	0.889119	0.889119	4.43877
C	0.889119	0.889119	11.5381
C	0.889119	7.98842	4.43877
C	0.889119	7.98842	11.5381
C	7.98842	0.889119	4.43877
C	7.98842	0.889119	11.5381
C	7.98842	7.98842	4.43877
C	7.98842	7.98842	11.5381
C	0.889119	4.43877	0.889119
C	0.889119	4.43877	7.98842
C	0.889119	11.5381	0.889119
C	0.889119	11.5381	7.98842
C	7.98842	4.43877	0.889119
C	7.98842	4.43877	7.98842
C	7.98842	11.5381	0.889119
C	7.98842	11.5381	7.98842
C	0.889119	4.43877	4.43877
C	0.889119	4.43877	11.5381
C	0.889119	11.5381	4.43877
C	0.889119	11.5381	11.5381
C	7.98842	4.43877	4.43877
C	7.98842	4.43877	11.5381
C	7.98842	11.5381	4.43877
C	7.98842	11.5381	11.5381
C	4.43877	0.889119	0.889119
C	4.43877	0.889119	7.98842
C	4.43877	7.98842	0.889119
C	4.43877	7.98842	7.98842
C	11.5381	0.889119	0.889119
C	11.5381	0.889119	7.98842
C	11.5381	7.98842	0.889119
C	11.5381	7.98842	7.98842
C	4.43877	0.889119	4.43877
C	4.43877	0.889119	11.5381
C	4.43877	7.98842	4.43877
C	4.43877	7.98842	11.5381
C	11.5381	0.889119	4.43877
C	11.5381	0.889119	11.5381
C	11.5381	7.98842	4.43877
C	11.5381	7.98842	11.5381
C	4.43877	4.43877	0.889119
C	4.43877	4.43877	7.98842
C	4.43877	11.5381	0.889119
C	4.43877	11.5381	7.98842
C	11.5381	4.43877	0.889119
C	11.5381	4.43877	7.98842
C	11.5381	11.5381	0.889119
C	11.5381	11.5381	7.98842
C	4.43877	4.43877	4.43877
C	4.43877	4.43877	11.5381
C	4.43877	11.5381	4.43877
C	4.43877	11.5381	11.5381
C	11.5381	4.43877	4.43877
C	11.5381	4.43877	11.5381
C	11.5381	11.5381	4.43877
C	11.5381	11.5381	11.5381
C	0.889119	2.66736	2.66736
C	0.889119	2.66736	9.76666
C	0.889119	9.76666	2.66736
C	0.889119	9.76666	9.76666
C	7.98842	2.66736	2.66736
C	7.98842	2.66736	9.76666
C	7.98842	9.76666	2.66736
C	7.98842	9.76666	9.76666
C	0.889119	2.66736	6.21701
C	0.889119	2.66736	13.3163
C	0.889119	9.76666	6.21701
C	0.889119	9.76666	13.3163
C	7.98842	2.66736	6.21701
C	7.98842	2.66736	13.3163
C	7.98842	9.76666	6.21701
C	7.98842	9.76666	13.3163
C	0.889119	6.21701	2.66736
C	0.889119	6.21701	9.76666
C	0.889119	13.3163	2.66736
C	0.889119	13.3163	9.76666
C	7.98842	6.21701	2.66736
C	7.98842	6.21701	9.76666
C	7.98842	13.3163	2.66736
C	7.98842	13.3163	9.76666
C	0.889119	6.21701	6.21701
C	0.889119	6.21701	13.3163
C	0.889119	13.3163	6.21701
C	0.889119	13.3163	13.3163
C	7.98842	6.21701	6.21701
C	7.98842	6.21701	13.3163
C	7.98842	13.3163	6.21701
C	7.98842	13.3163	13.3163
C	4.43877	2.66736	2.66736
C	4.43877	2.66736	9.76666
C	4.43877	9.76666	2.66736
C	4.43877	9.76666	9.76666
C	11.5381	2.66736	2.66736
C	11.5381	2.66736	9.76666
C	11.5381	9.76666	2.66736
C	11.5381	9.76666	9.76666
C	4.43877	2.66736	6.21701
C	4.43877	2.66736	13.3163
C	4.43877	9.76666	6.21701
C	4.43877	9.76666	13.3163
C	11.5381	2.66736	6.21701
C	11.5381	2.66736	13.3163
C	11.5381	9.76666	6.21701
C	11.5381	9.76666	13.3163
C	4.43877	6.21701	2.66736
C	4.43877	6.21701	9.76666
C	4.43877	13.3163	2.66736
C	4.43877	13.3163	9.76666
C	11.5381	6.21701	2.66736
C	11.5381	6.21701	9.76666
C	11.5381	13.3163	2.66736
C	11.5381	13.3163	9.76666
C	4.43877	6.21701	6.21701
C	4.43877	6.21701	13.3163
C	4.43877	13.3163	6.21701
C	4.43877	13.3163	13.3163
C	11.5381	6.21701	6.21701
C	11.5381	6.21701	13.3163
C	11.5381	13.3163	6.21701
C	11.5381	13.3163	13.3163
C	2.66736	0.889119	2.66736
C	2.66736	0.889119	9.76666
C	2.66736	7.98842	2.66736
C	2.66736	7.98842	9.76666
C	9.76666	0.889119	2.66736
C	9.76666	0.889119	9.76666
C	9.76666	7.98842	2.66736
C	9.76666	7.98842	9.76666
C	2.66736	0.889119	6.21701
C	2.66736	0.889119	13.3163
C	2.66736	7.98842	6.21701
C	2.66736	7.98842	13.3163
C	9.76666	0.889119	6.21701
C	9.76666	0.889119	13.3163
C	9.76666	7.98842	6.21701
C	9.76666	7.98842	13.3163
C	2.66736	4.43877	2.66736
C	2.66736	4.43877	9.76666
C	2.66736	11.5381	2.66736
C	2.66736	11.5381	9.76666
C	9.76666	4.43877	2.66736
C	9.76666	4.43877	9.76666
C	9.76666	11.5381	2.66736
C	9.76666	11.5381	9.76666
C	2.66736	4.43877	6.21701
C	2.66736	4.43877	13.3163
C	2.66736	11.5381	6.21701
C	2.66736	11.5381	13.3163
C	9.76666	4.43877	6.21701
C	9.76666	4.43877	13.3163
C	9.76666	11.5381	6.21701
C	9.76666	11.5381	13.3163
C	6.21701	0.889119	2.66736
C	6.21701	0.889119	9.76666
C	6.21701	7.98842	2.66736
C	6.21701	7.98842	9.76666
C	13.3163	0.889119	2.66736
C	13.3163	0.889119	9.76666
C	13.3163	7.98842	2.66736
C	13.3163	7.98842	9.76666
C	6.21701	0.889119	6.21701
C	6.21701	0.889119	13.3163
C	6.21701	7.98842	6.21701
C	6.21701	7.98842	13.3163
C	13.3163	0.889119	6.21701
C	13.3163	0.889119	13.3163
C	13.3163	7.98842	6.21701
C	13.3163	7.98842	13.3163
C	6.21701	4.43877	2.66736
C	6.21701	4.43877	9.76666
C	6.21701	11.5381	2.66736
C	6.21701	11.5381	9.76666
C	13.3163	4.43877	2.66736
C	13.3163	4.43877	9.76666
C	13.3163	11.5381	2.66736
C	13.3163	11.5381	9.76666
C	6.21701	4.43877	6.21701
C	6.21701	4.43877	13.3163
C	6.21701	11.5381	6.21701
C	6.21701	11.5381	13.3163
C	13.3163	4.43877	6.21701
C	13.3163	4.43877	13.3163
C	13.3163	11.5381	6.21701
C	13.3163	11.5381	13.3163
C	2.66736	2.66736	0.889119
C	2.66736	2.66736	7.98842
C	2.66736	9.76666	0.889119
C	2.66736	9.76666	7.98842
C	9.76666	2.66736	0.889119
C	9.76666	2.66736	7.98842
C	9.76666	9.76666	0.889119
C	9.76666	9.76666	7.98842
C	2.66736	2.66736	4.43877
C	2.66736	2.66736	11.5381
C	2.66736	9.76666	4.43877
C	2.66736	9.76666	11.5381
C	9.76666	2.66736	4.43877
C	9.76666	2.66736	11.5381
C	9.76666	9.76666	4.43877
C	9.76666	9.76666	11.5381
C	2.66736	6.21701	0.889119
C	2.66736	6.21701	7.98842
C	2.66736	13.3163	0.889119
C	2.66736	13.3163	7.98842
C	9.76666	6.21701	0.889119
C	9.76666	6.21701	7.98842
C	9.76666	13.3163	0.889119
C	9.76666	13.3163	7.98842
C	2.66736	6.21701	4.43877
C	2.66736	6.21701	11.5381
C	2.66736	13.3163	4.43877
C	2.66736	13.3163	11.5381
C	9.76666	6.21701	4.43877
C	9.76666	6.21701	11.5381
C	9.76666	13.3163	4.43877
C	9.76666	13.3163	11.5381
C	6.21701	2.66736	0.889119
C	6.21701	2.66736	7.98842
C	6.21701	9.76666	0.889119
C	6.21701	9.76666	7.98842
C	13.3163	2.66736	0.889119
C	13.3163	2.66736	7.98842
C	13.3163	9.76666	0.889119
C	13.3163	9.76666	7.98842
C	6.21701	2.66736	4.43877
C	6.21701	2.66736	11.5381
C	6.21701	9.76666	4.43877
C	6.21701	9.76666	11.5381
C	13.3163	2.66736	4.43877
C	13.3163	2.66736	11.5381
C	13.3163	9.76666	4.43877
C	13.3163	9.76666	11.5381
C	6.21701	6.21701	0.889119
C	6.21701	6.21701	7.98842
C	6.21701	13.3163	0.889119
C	6.21701	13.3163	7.98842
C	13.3163	6.21701	0.889119
C	13.3163	6.21701	7.98842
C	13.3163	13.3163	0.889119
C	13.3163	13.3163	7.98842
C	6.21701	6.21701	4.43877
C	6.21701	6.21701	11.5381
C	6.21701	13.3163	4.43877
C	6.21701	13.3163	11.5381
C	13.3163	6.21701	4.43877
C	13.3163	6.21701	11.5381
C	13.3163	13.3163	4.43877
C	13.3163	13.3163	11.5381
