216
graphene222.xyz	22.1356	25.56	6
C	0	0	0
C	0	8.52	0
C	0	17.04	0
C	7.37854	0	0
C	7.37854	8.52	0
C	7.37854	17.04	0
C	14.7571	0	0
C	14.7571	8.52	0
C	14.7571	17.04	0
C	0	4.26	0
C	0	12.78	0
C	0	21.3	0
C	7.37854	4.26	0
C	7.37854	12.78	0
C	7.37854	21.3	0
C	14.7571	4.26	0
C	14.7571	12.78	0
C	14.7571	21.3	0
C	2.45951	0	0
C	2.45951	8.52	0
C	2.45951	17.04	0
C	9.83805	0	0
C	9.83805	8.52	0
C	9.83805	17.04	0
C	17.2166	0	0
C	17.2166	8.52	0
C	17.2166	17.04	0
C	2.45951	4.26	0
C	2.45951	12.78	0
C	2.45951	21.3	0
C	9.83805	4.26	0
C	9.83805	12.78	0
C	9.83805	21.3	0
C	17.2166	4.26	0
C	17.2166	12.78	0
C	17.2166	21.3	0
C	4.91902	0	0
C	4.91902	8.52	0
C	4.91902	17.04	0
C	12.2976	0	0
C	12.2976	8.52	0
C	12.2976	17.04	0
C	19.6761	0	0
C	19.6761	8.52	0
C	19.6761	17.04	0
C	4.91902	4.26	0
C	4.91902	12.78	0
C	4.91902	21.3	0
C	12.2976	4.26	0
C	12.2976	12.78	0
C	12.2976	21.3	0
C	19.6761	4.26	0
C	19.6761	12.78	0
C	19.6761	21.3	0
C	0	-1.42	0
C	0	7.1	0
C	0	15.62	0
C	7.37854	-1.42	0
C	7.37854	7.1	0
C	7.37854	15.62	0
C	14.7571	-1.42	0
C	14.7571	7.1	0
C	14.7571	15.62	0
C	0	2.84	0
C	0	11.36	0
C	0	19.88	0
C	7.37854	2.84	0
C	7.37854	11.36	0
C	7.37854	19.88	0
C	14.7571	2.84	0
C	14.7571	11.36	0
C	14.7571	19.88	0
C	2.45951	-1.42	0
C	2.45951	7.1	0
C	2.45951	15.62	0
C	9.83805	-1.42	0
C	9.83805	7.1	0
C	9.83805	15.62	0
C	17.2166	-1.42	0
C	17.2166	7.1	0
C	17.2166	15.62	0
C	2.45951	2.84	0
C	2.45951	11.36	0
C	2.45951	19.88	0
C	9.83805	2.84	0
C	9.83805	11.36	0
C	9.83805	19.88	0
C	17.2166	2.84	0
C	17.2166	11.36	0
C	17.2166	19.88	0
C	4.91902	-1.42	0
C	4.91902	7.1	0
C	4.91902	15.62	0
C	12.2976	-1.42	0
C	12.2976	7.1	0
C	12.2976	15.62	0
C	19.6761	-1.42	0
C	19.6761	7.1	0
C	19.6761	15.62	0
C	4.91902	2.84	0
C	4.91902	11.36	0
C	4.91902	19.88	0
C	12.2976	2.84	0
C	12.2976	11.36	0
C	12.2976	19.88	0
C	19.6761	2.84	0
C	19.6761	11.36	0
C	19.6761	19.88	0
C	-1.22976	0.71	0
C	-1.22976	9.23	0
C	-1.22976	17.75	0
C	6.14878	0.71	0
C	6.14878	9.23	0
C	6.14878	17.75	0
C	13.5273	0.71	0
C	13.5273	9.23	0
C	13.5273	17.75	0
C	-1.22976	4.97	0
C	-1.22976	13.49	0
C	-1.22976	22.01	0
C	6.14878	4.97	0
C	6.14878	13.49	0
C	6.14878	22.01	0
C	13.5273	4.97	0
C	13.5273	13.49	0
C	13.5273	22.01	0
C	1.22976	0.71	0
C	1.22976	9.23	0
C	1.22976	17.75	0
C	8.6083	0.71	0
C	8.6083	9.23	0
C	8.6083	17.75	0
C	15.9868	0.71	0
C	15.9868	9.23	0
C	15.9868	17.75	0
C	1.22976	4.97	0
C	1.22976	13.49	0
C	1.22976	22.01	0
C	8.6083	4.97	0
C	8.6083	13.49	0
C	8.6083	22.01	0
C	15.9868	4.97	0
C	15.9868	13.49	0
C	15.9868	22.01	0
C	3.68927	0.71	0
C	3.68927	9.23	0
C	3.68927	17.75	0
C	11.0678	0.71	0
C	11.0678	9.23	0
C	11.0678	17.75	0
C	18.4463	0.71	0
C	18.4463	9.23	0
C	18.4463	17.75	0
C	3.68927	4.97	0
C	3.68927	13.49	0
C	3.68927	22.01	0
C	11.0678	4.97	0
C	11.0678	13.49	0
C	11.0678	22.01	0
C	18.4463	4.97	0
C	18.4463	13.49	0
C	18.4463	22.01	0
C	-1.22976	-2.13	0
C	-1.22976	6.39	0
C	-1.22976	14.91	0
C	6.14878	-2.13	0
C	6.14878	6.39	0
C	6.14878	14.91	0
C	13.5273	-2.13	0
C	13.5273	6.39	0
C	13.5273	14.91	0
C	-1.22976	2.13	0
C	-1.22976	10.65	0
C	-1.22976	19.17	0
C	6.14878	2.13	0
C	6.14878	10.65	0
C	6.14878	19.17	0
C	13.5273	2.13	0
C	13.5273	10.65	0
C	13.5273	19.17	0
C	1.22976	-2.13	0
C	1.22976	6.39	0
C	1.22976	14.91	0
C	8.6083	-2.13	0
C	8.6083	6.39	0
C	8.6083	14.91	0
C	15.9868	-2.13	0
C	15.9868	6.39	0
C	15.9868	14.91	0
C	1.22976	2.13	0
C	1.22976	10.65	0
C	1.22976	19.17	0
C	8.6083	2.13	0
C	8.6083	10.65	0
C	8.6083	19.17	0
C	15.9868	2.13	0
C	15.9868	10.65	0
C	15.9868	19.17	0
C	3.68927	-2.13	0
C	3.68927	6.39	0
C	3.68927	14.91	0
C	11.0678	-2.13	0
C	11.0678	6.39	0
C	11.0678	14.91	0
C	18.4463	-2.13	0
C	18.4463	6.39	0
C	18.4463	14.91	0
C	3.68927	2.13	0
C	3.68927	10.65	0
C	3.68927	19.17	0
C	11.0678	2.13	0
C	11.0678	10.65	0
C	11.0678	19.17	0
C	18.4463	2.13	0
C	18.4463	10.65	0
C	18.4463	19.17	0
