48
graphene_more.xyz	14.7571	8.52	6
C	0	0	0
C	7.37854	0	0
C	0	4.26	0
C	7.37854	4.26	0
C	2.45951	0	0
C	9.83805	0	0
C	2.45951	4.26	0
C	9.83805	4.26	0
C	4.91902	0	0
C	12.2976	0	0
C	4.91902	4.26	0
C	12.2976	4.26	0
C	0	-1.42	0
C	7.37854	-1.42	0
C	0	2.84	0
C	7.37854	2.84	0
C	2.45951	-1.42	0
C	9.83805	-1.42	0
C	2.45951	2.84	0
C	9.83805	2.84	0
C	4.91902	-1.42	0
C	12.2976	-1.42	0
C	4.91902	2.84	0
C	12.2976	2.84	0
C	-1.22976	0.71	0
C	6.14878	0.71	0
C	-1.22976	4.97	0
C	6.14878	4.97	0
C	1.22976	0.71	0
C	8.6083	0.71	0
C	1.22976	4.97	0
C	8.6083	4.97	0
C	3.68927	0.71	0
C	11.0678	0.71	0
C	3.68927	4.97	0
C	11.0678	4.97	0
C	-1.22976	-2.13	0
C	6.14878	-2.13	0
C	-1.22976	2.13	0
C	6.14878	2.13	0
C	1.22976	-2.13	0
C	8.6083	-2.13	0
C	1.22976	2.13	0
C	8.6083	2.13	0
C	3.68927	-2.13	0
C	11.0678	-2.13	0
C	3.68927	2.13	0
C	11.0678	2.13	0
