240
nanotube240.xyz	40	20	7.37854
C	6.78	0	0
C	26.78	0	0
C	6.78	0	2.45951
C	26.78	0	2.45951
C	6.78	0	4.91902
C	26.78	0	4.91902
C	6.6318	1.4096	0
C	26.6318	1.4096	0
C	6.6318	1.4096	2.45951
C	26.6318	1.4096	2.45951
C	6.6318	1.4096	4.91902
C	26.6318	1.4096	4.91902
C	5.4851	3.9852	0
C	25.4851	3.9852	0
C	5.4851	3.9852	2.45951
C	25.4851	3.9852	2.45951
C	5.4851	3.9852	4.91902
C	25.4851	3.9852	4.91902
C	4.5367	5.0385	0
C	24.5367	5.0385	0
C	4.5367	5.0385	2.45951
C	24.5367	5.0385	2.45951
C	4.5367	5.0385	4.91902
C	24.5367	5.0385	4.91902
C	2.0951	6.4482	0
C	22.0951	6.4482	0
C	2.0951	6.4482	2.45951
C	22.0951	6.4482	2.45951
C	2.0951	6.4482	4.91902
C	22.0951	6.4482	4.91902
C	0.7087	6.7429	0
C	20.7087	6.7429	0
C	0.7087	6.7429	2.45951
C	20.7087	6.7429	2.45951
C	0.7087	6.7429	4.91902
C	20.7087	6.7429	4.91902
C	-2.0951	6.4482	0
C	17.9049	6.4482	0
C	-2.0951	6.4482	2.45951
C	17.9049	6.4482	2.45951
C	-2.0951	6.4482	4.91902
C	17.9049	6.4482	4.91902
C	-3.39	5.8717	0
C	16.61	5.8717	0
C	-3.39	5.8717	2.45951
C	16.61	5.8717	2.45951
C	-3.39	5.8717	4.91902
C	16.61	5.8717	4.91902
C	-5.4851	3.9852	0
C	14.5149	3.9852	0
C	-5.4851	3.9852	2.45951
C	14.5149	3.9852	2.45951
C	-5.4851	3.9852	4.91902
C	14.5149	3.9852	4.91902
C	-6.1938	2.7577	0
C	13.8062	2.7577	0
C	-6.1938	2.7577	2.45951
C	13.8062	2.7577	2.45951
C	-6.1938	2.7577	4.91902
C	13.8062	2.7577	4.91902
C	-6.78	0	0
C	13.22	0	0
C	-6.78	0	2.45951
C	13.22	0	2.45951
C	-6.78	0	4.91902
C	13.22	0	4.91902
C	-6.6318	-1.4096	0
C	13.3682	-1.4096	0
C	-6.6318	-1.4096	2.45951
C	13.3682	-1.4096	2.45951
C	-6.6318	-1.4096	4.91902
C	13.3682	-1.4096	4.91902
C	-5.4851	-3.9852	0
C	14.5149	-3.9852	0
C	-5.4851	-3.9852	2.45951
C	14.5149	-3.9852	2.45951
C	-5.4851	-3.9852	4.91902
C	14.5149	-3.9852	4.91902
C	-4.5367	-5.0385	0
C	15.4633	-5.0385	0
C	-4.5367	-5.0385	2.45951
C	15.4633	-5.0385	2.45951
C	-4.5367	-5.0385	4.91902
C	15.4633	-5.0385	4.91902
C	-2.0951	-6.4482	0
C	17.9049	-6.4482	0
C	-2.0951	-6.4482	2.45951
C	17.9049	-6.4482	2.45951
C	-2.0951	-6.4482	4.91902
C	17.9049	-6.4482	4.91902
C	-0.7087	-6.7429	0
C	19.2913	-6.7429	0
C	-0.7087	-6.7429	2.45951
C	19.2913	-6.7429	2.45951
C	-0.7087	-6.7429	4.91902
C	19.2913	-6.7429	4.91902
C	2.0951	-6.4482	0
C	22.0951	-6.4482	0
C	2.0951	-6.4482	2.45951
C	22.0951	-6.4482	2.45951
C	2.0951	-6.4482	4.91902
C	22.0951	-6.4482	4.91902
C	3.39	-5.8717	0
C	23.39	-5.8717	0
C	3.39	-5.8717	2.45951
C	23.39	-5.8717	2.45951
C	3.39	-5.8717	4.91902
C	23.39	-5.8717	4.91902
C	5.4851	-3.9852	0
C	25.4851	-3.9852	0
C	5.4851	-3.9852	2.45951
C	25.4851	-3.9852	2.45951
C	5.4851	-3.9852	4.91902
C	25.4851	-3.9852	4.91902
C	6.1938	-2.7577	0
C	26.1938	-2.7577	0
C	6.1938	-2.7577	2.45951
C	26.1938	-2.7577	2.45951
C	6.1938	-2.7577	4.91902
C	26.1938	-2.7577	4.91902
C	6.4482	2.0951	1.2298
C	26.4482	2.0951	1.2298
C	6.4482	2.0951	3.68931
C	26.4482	2.0951	3.68931
C	6.4482	2.0951	6.14882
C	26.4482	2.0951	6.14882
C	5.8717	3.39	1.2298
C	25.8717	3.39	1.2298
C	5.8717	3.39	3.68931
C	25.8717	3.39	3.68931
C	5.8717	3.39	6.14882
C	25.8717	3.39	6.14882
C	3.9852	5.4851	1.2298
C	23.9852	5.4851	1.2298
C	3.9852	5.4851	3.68931
C	23.9852	5.4851	3.68931
C	3.9852	5.4851	6.14882
C	23.9852	5.4851	6.14882
C	2.7577	6.1938	1.2298
C	22.7577	6.1938	1.2298
C	2.7577	6.1938	3.68931
C	22.7577	6.1938	3.68931
C	2.7577	6.1938	6.14882
C	22.7577	6.1938	6.14882
C	0	6.78	1.2298
C	20	6.78	1.2298
C	0	6.78	3.68931
C	20	6.78	3.68931
C	0	6.78	6.14882
C	20	6.78	6.14882
C	-1.4096	6.6318	1.2298
C	18.5904	6.6318	1.2298
C	-1.4096	6.6318	3.68931
C	18.5904	6.6318	3.68931
C	-1.4096	6.6318	6.14882
C	18.5904	6.6318	6.14882
C	-3.9852	5.4851	1.2298
C	16.0148	5.4851	1.2298
C	-3.9852	5.4851	3.68931
C	16.0148	5.4851	3.68931
C	-3.9852	5.4851	6.14882
C	16.0148	5.4851	6.14882
C	-5.0385	4.5367	1.2298
C	14.9615	4.5367	1.2298
C	-5.0385	4.5367	3.68931
C	14.9615	4.5367	3.68931
C	-5.0385	4.5367	6.14882
C	14.9615	4.5367	6.14882
C	-6.4482	2.0951	1.2298
C	13.5518	2.0951	1.2298
C	-6.4482	2.0951	3.68931
C	13.5518	2.0951	3.68931
C	-6.4482	2.0951	6.14882
C	13.5518	2.0951	6.14882
C	-6.7429	0.7087	1.2298
C	13.2571	0.7087	1.2298
C	-6.7429	0.7087	3.68931
C	13.2571	0.7087	3.68931
C	-6.7429	0.7087	6.14882
C	13.2571	0.7087	6.14882
C	-6.4482	-2.0951	1.2298
C	13.5518	-2.0951	1.2298
C	-6.4482	-2.0951	3.68931
C	13.5518	-2.0951	3.68931
C	-6.4482	-2.0951	6.14882
C	13.5518	-2.0951	6.14882
C	-5.8717	-3.39	1.2298
C	14.1283	-3.39	1.2298
C	-5.8717	-3.39	3.68931
C	14.1283	-3.39	3.68931
C	-5.8717	-3.39	6.14882
C	14.1283	-3.39	6.14882
C	-3.9852	-5.4851	1.2298
C	16.0148	-5.4851	1.2298
C	-3.9852	-5.4851	3.68931
C	16.0148	-5.4851	3.68931
C	-3.9852	-5.4851	6.14882
C	16.0148	-5.4851	6.14882
C	-2.7577	-6.1938	1.2298
C	17.2423	-6.1938	1.2298
C	-2.7577	-6.1938	3.68931
C	17.2423	-6.1938	3.68931
C	-2.7577	-6.1938	6.14882
C	17.2423	-6.1938	6.14882
C	0	-6.78	1.2298
C	20	-6.78	1.2298
C	0	-6.78	3.68931
C	20	-6.78	3.68931
C	0	-6.78	6.14882
C	20	-6.78	6.14882
C	1.4096	-6.6318	1.2298
C	21.4096	-6.6318	1.2298
C	1.4096	-6.6318	3.68931
C	21.4096	-6.6318	3.68931
C	1.4096	-6.6318	6.14882
C	21.4096	-6.6318	6.14882
C	3.9852	-5.4851	1.2298
C	23.9852	-5.4851	1.2298
C	3.9852	-5.4851	3.68931
C	23.9852	-5.4851	3.68931
C	3.9852	-5.4851	6.14882
C	23.9852	-5.4851	6.14882
C	5.0385	-4.5367	1.2298
C	25.0385	-4.5367	1.2298
C	5.0385	-4.5367	3.68931
C	25.0385	-4.5367	3.68931
C	5.0385	-4.5367	6.14882
C	25.0385	-4.5367	6.14882
C	6.4482	-2.0951	1.2298
C	26.4482	-2.0951	1.2298
C	6.4482	-2.0951	3.68931
C	26.4482	-2.0951	3.68931
C	6.4482	-2.0951	6.14882
C	26.4482	-2.0951	6.14882
C	6.7429	-0.7087	1.2298
C	26.7429	-0.7087	1.2298
C	6.7429	-0.7087	3.68931
C	26.7429	-0.7087	3.68931
C	6.7429	-0.7087	6.14882
C	26.7429	-0.7087	6.14882
